instances/data_GOC/Phase_0_RTS96/scenario_75/powersystem.raw
 0,  100.000000
rts96_spring_wday.raw / File written by to_psse.gms
5 / 19 / 2015
101, ' 101 ',138,2,1,1,1,1.00,0.00,1.1,0.9,1.1,0.9
102, ' 102 ',138,2,1,1,1,1.00,0.00,1.1,0.9,1.1,0.9
103, ' 103 ',138,1,1,1,1,1.00,0.00,1.1,0.9,1.1,0.9
104, ' 104 ',138,1,1,1,1,1.00,0.00,1.1,0.9,1.1,0.9
105, ' 105 ',138,1,1,1,1,1.00,0.00,1.1,0.9,1.1,0.9
106, ' 106 ',138,1,1,1,1,1.00,0.00,1.1,0.9,1.1,0.9
107, ' 107 ',138,2,1,1,1,1.00,0.00,1.1,0.9,1.1,0.9
108, ' 108 ',138,1,1,1,1,1.00,0.00,1.1,0.9,1.1,0.9
109, ' 109 ',138,1,1,1,1,1.00,0.00,1.1,0.9,1.1,0.9
110, ' 110 ',138,1,1,1,1,1.00,0.00,1.1,0.9,1.1,0.9
111, ' 111 ',230,1,1,1,1,1.00,0.00,1.1,0.9,1.1,0.9
112, ' 112 ',230,1,1,1,1,1.00,0.00,1.1,0.9,1.1,0.9
113, ' 113 ',230,3,1,1,1,1.00,0.00,1.1,0.9,1.1,0.9
114, ' 114 ',230,2,1,1,1,1.00,0.00,1.1,0.9,1.1,0.9
115, ' 115 ',230,2,1,1,1,1.00,0.00,1.1,0.9,1.1,0.9
116, ' 116 ',230,2,1,1,1,1.00,0.00,1.1,0.9,1.1,0.9
117, ' 117 ',230,1,1,1,1,1.00,0.00,1.1,0.9,1.1,0.9
118, ' 118 ',230,2,1,1,1,1.00,0.00,1.1,0.9,1.1,0.9
119, ' 119 ',230,1,1,1,1,1.00,0.00,1.1,0.9,1.1,0.9
120, ' 120 ',230,1,1,1,1,1.00,0.00,1.1,0.9,1.1,0.9
121, ' 121 ',230,2,1,1,1,1.00,0.00,1.1,0.9,1.1,0.9
122, ' 122 ',230,2,1,1,1,1.00,0.00,1.1,0.9,1.1,0.9
123, ' 123 ',230,2,1,1,1,1.00,0.00,1.1,0.9,1.1,0.9
124, ' 124 ',230,1,1,1,1,1.00,0.00,1.1,0.9,1.1,0.9
201, ' 201 ',138,2,1,1,1,1.00,0.00,1.1,0.9,1.1,0.9
202, ' 202 ',138,2,1,1,1,1.00,0.00,1.1,0.9,1.1,0.9
203, ' 203 ',138,1,1,1,1,1.00,0.00,1.1,0.9,1.1,0.9
204, ' 204 ',138,1,1,1,1,1.00,0.00,1.1,0.9,1.1,0.9
205, ' 205 ',138,1,1,1,1,1.00,0.00,1.1,0.9,1.1,0.9
206, ' 206 ',138,1,1,1,1,1.00,0.00,1.1,0.9,1.1,0.9
207, ' 207 ',138,2,1,1,1,1.00,0.00,1.1,0.9,1.1,0.9
208, ' 208 ',138,1,1,1,1,1.00,0.00,1.1,0.9,1.1,0.9
209, ' 209 ',138,1,1,1,1,1.00,0.00,1.1,0.9,1.1,0.9
210, ' 210 ',138,1,1,1,1,1.00,0.00,1.1,0.9,1.1,0.9
211, ' 211 ',230,1,1,1,1,1.00,0.00,1.1,0.9,1.1,0.9
212, ' 212 ',230,1,1,1,1,1.00,0.00,1.1,0.9,1.1,0.9
213, ' 213 ',230,2,1,1,1,1.00,0.00,1.1,0.9,1.1,0.9
214, ' 214 ',230,2,1,1,1,1.00,0.00,1.1,0.9,1.1,0.9
215, ' 215 ',230,2,1,1,1,1.00,0.00,1.1,0.9,1.1,0.9
216, ' 216 ',230,2,1,1,1,1.00,0.00,1.1,0.9,1.1,0.9
217, ' 217 ',230,1,1,1,1,1.00,0.00,1.1,0.9,1.1,0.9
218, ' 218 ',230,2,1,1,1,1.00,0.00,1.1,0.9,1.1,0.9
219, ' 219 ',230,1,1,1,1,1.00,0.00,1.1,0.9,1.1,0.9
220, ' 220 ',230,1,1,1,1,1.00,0.00,1.1,0.9,1.1,0.9
221, ' 221 ',230,2,1,1,1,1.00,0.00,1.1,0.9,1.1,0.9
222, ' 222 ',230,2,1,1,1,1.00,0.00,1.1,0.9,1.1,0.9
223, ' 223 ',230,2,1,1,1,1.00,0.00,1.1,0.9,1.1,0.9
224, ' 224 ',230,1,1,1,1,1.00,0.00,1.1,0.9,1.1,0.9
301, ' 301 ',138,2,1,1,1,1.00,0.00,1.1,0.9,1.1,0.9
302, ' 302 ',138,2,1,1,1,1.00,0.00,1.1,0.9,1.1,0.9
303, ' 303 ',138,1,1,1,1,1.00,0.00,1.1,0.9,1.1,0.9
304, ' 304 ',138,1,1,1,1,1.00,0.00,1.1,0.9,1.1,0.9
305, ' 305 ',138,1,1,1,1,1.00,0.00,1.1,0.9,1.1,0.9
306, ' 306 ',138,1,1,1,1,1.00,0.00,1.1,0.9,1.1,0.9
307, ' 307 ',138,2,1,1,1,1.00,0.00,1.1,0.9,1.1,0.9
308, ' 308 ',138,1,1,1,1,1.00,0.00,1.1,0.9,1.1,0.9
309, ' 309 ',138,1,1,1,1,1.00,0.00,1.1,0.9,1.1,0.9
310, ' 310 ',138,1,1,1,1,1.00,0.00,1.1,0.9,1.1,0.9
311, ' 311 ',230,1,1,1,1,1.00,0.00,1.1,0.9,1.1,0.9
312, ' 312 ',230,1,1,1,1,1.00,0.00,1.1,0.9,1.1,0.9
313, ' 313 ',230,2,1,1,1,1.00,0.00,1.1,0.9,1.1,0.9
314, ' 314 ',230,2,1,1,1,1.00,0.00,1.1,0.9,1.1,0.9
315, ' 315 ',230,2,1,1,1,1.00,0.00,1.1,0.9,1.1,0.9
316, ' 316 ',230,2,1,1,1,1.00,0.00,1.1,0.9,1.1,0.9
317, ' 317 ',230,1,1,1,1,1.00,0.00,1.1,0.9,1.1,0.9
318, ' 318 ',230,2,1,1,1,1.00,0.00,1.1,0.9,1.1,0.9
319, ' 319 ',230,1,1,1,1,1.00,0.00,1.1,0.9,1.1,0.9
320, ' 320 ',230,1,1,1,1,1.00,0.00,1.1,0.9,1.1,0.9
321, ' 321 ',230,2,1,1,1,1.00,0.00,1.1,0.9,1.1,0.9
322, ' 322 ',230,2,1,1,1,1.00,0.00,1.1,0.9,1.1,0.9
323, ' 323 ',230,2,1,1,1,1.00,0.00,1.1,0.9,1.1,0.9
324, ' 324 ',230,1,1,1,1,1.00,0.00,1.1,0.9,1.1,0.9
325, ' 325 ',230,1,1,1,1,1.00,0.00,1.1,0.9,1.1,0.9
0 / END OF BUS DATA, BEGIN LOAD DATA
101, '1 ',1,11,11,90.81838404887337,17.510105008246935,0.0,0.0,0.0,0.0,1,1,0
102, '1 ',1,11,12,67.82610297976252,11.266695828764698,0.0,0.0,0.0,0.0,1,1,0
103, '1 ',1,11,11,136.1691225159159,22.922875707880127,0.0,0.0,0.0,0.0,1,1,0
104, '1 ',1,11,11,47.305724858825556,8.098097648922353,0.0,0.0,0.0,0.0,1,1,0
105, '1 ',1,11,11,49.532900770566336,11.948982828286105,0.0,0.0,0.0,0.0,1,1,0
106, '1 ',1,11,12,99.46435757489317,13.738950746557675,0.0,0.0,0.0,0.0,1,1,0
107, '1 ',1,11,12,110.16035488471971,12.393382633540313,0.0,0.0,0.0,0.0,1,1,0
108, '1 ',1,11,12,115.53702189901834,24.69708793526189,0.0,0.0,0.0,0.0,1,1,0
109, '1 ',1,11,13,108.39906877828413,22.535529632151313,0.0,0.0,0.0,0.0,1,1,0
110, '1 ',1,11,13,167.9500626940804,22.72431124679558,0.0,0.0,0.0,0.0,1,1,0
111, '1 ',1,11,13,0.0,0.0,0.0,0.0,0.0,0.0,1,1,0
112, '1 ',1,11,13,0.0,0.0,0.0,0.0,0.0,0.0,1,1,0
113, '1 ',1,12,14,226.49143245105566,29.701466342139522,0.0,0.0,0.0,0.0,1,1,0
114, '1 ',1,12,16,151.13578800002765,29.45448803332178,0.0,0.0,0.0,0.0,1,1,0
115, '1 ',1,12,16,263.0252028263671,41.122982070386406,0.0,0.0,0.0,0.0,1,1,0
116, '1 ',1,12,16,48.991872807992614,9.760378398575819,0.0,0.0,0.0,0.0,1,1,0
117, '1 ',1,12,17,0.0,0.0,0.0,0.0,0.0,0.0,1,1,0
118, '1 ',1,12,17,216.48644892998678,60.100592728769044,0.0,0.0,0.0,0.0,1,1,0
119, '1 ',1,12,15,123.28755668040687,27.219166326573582,0.0,0.0,0.0,0.0,1,1,0
120, '1 ',1,12,15,81.61952829031348,14.915105630318541,0.0,0.0,0.0,0.0,1,1,0
121, '1 ',1,12,17,0.0,0.0,0.0,0.0,0.0,0.0,1,1,0
122, '1 ',1,12,17,0.0,0.0,0.0,0.0,0.0,0.0,1,1,0
123, '1 ',1,12,15,0.0,0.0,0.0,0.0,0.0,0.0,1,1,0
124, '1 ',1,12,16,0.0,0.0,0.0,0.0,0.0,0.0,1,1,0
201, '1 ',1,21,21,96.63305785137601,11.005991194407642,0.0,0.0,0.0,0.0,1,1,0
202, '1 ',1,21,22,47.81311053833077,12.932015977257862,0.0,0.0,0.0,0.0,1,1,0
203, '1 ',1,21,21,139.17563758432678,31.281239230559954,0.0,0.0,0.0,0.0,1,1,0
204, '1 ',1,21,21,45.914067440302105,11.798930895981844,0.0,0.0,0.0,0.0,1,1,0
205, '1 ',1,21,21,46.96828258249406,6.823331915969308,0.0,0.0,0.0,0.0,1,1,0
206, '1 ',1,21,22,88.41649052034282,16.907602286935038,0.0,0.0,0.0,0.0,1,1,0
207, '1 ',1,21,22,85.12606512791827,14.425540617811492,0.0,0.0,0.0,0.0,1,1,0
208, '1 ',1,21,22,137.13275674999548,21.107317925516284,0.0,0.0,0.0,0.0,1,1,0
209, '1 ',1,21,23,87.15849435558425,18.281434558048097,0.0,0.0,0.0,0.0,1,1,0
210, '1 ',1,21,23,138.0523264292304,28.326766486829147,0.0,0.0,0.0,0.0,1,1,0
211, '1 ',1,21,23,0.0,0.0,0.0,0.0,0.0,0.0,1,1,0
212, '1 ',1,21,23,0.0,0.0,0.0,0.0,0.0,0.0,1,1,0
213, '1 ',1,22,24,192.81146491006766,33.99074263345962,0.0,0.0,0.0,0.0,1,1,0
214, '1 ',1,22,26,164.5437532230397,25.276824250263815,0.0,0.0,0.0,0.0,1,1,0
215, '1 ',1,22,26,178.8786658033458,46.30204547378718,0.0,0.0,0.0,0.0,1,1,0
216, '1 ',1,22,26,81.56958574406336,16.47685285390634,0.0,0.0,0.0,0.0,1,1,0
217, '1 ',1,22,27,0.0,0.0,0.0,0.0,0.0,0.0,1,1,0
218, '1 ',1,22,27,290.58083393837495,47.603788220883715,0.0,0.0,0.0,0.0,1,1,0
219, '1 ',1,22,25,140.0953973060035,32.83826672652662,0.0,0.0,0.0,0.0,1,1,0
220, '1 ',1,22,25,91.73708241623639,12.692241356157325,0.0,0.0,0.0,0.0,1,1,0
221, '1 ',1,22,27,0.0,0.0,0.0,0.0,0.0,0.0,1,1,0
222, '1 ',1,22,27,0.0,0.0,0.0,0.0,0.0,0.0,1,1,0
223, '1 ',1,22,25,0.0,0.0,0.0,0.0,0.0,0.0,1,1,0
224, '1 ',1,22,26,0.0,0.0,0.0,0.0,0.0,0.0,1,1,0
301, '1 ',1,31,31,96.6939103134485,11.450074747099075,0.0,0.0,0.0,0.0,1,1,0
302, '1 ',1,31,32,77.60702082414736,17.364216882378795,0.0,0.0,0.0,0.0,1,1,0
303, '1 ',1,31,31,89.02751079315505,23.525381389187785,0.0,0.0,0.0,0.0,1,1,0
304, '1 ',1,31,31,64.68311439176705,7.817325460752238,0.0,0.0,0.0,0.0,1,1,0
305, '1 ',1,31,31,63.74849712046115,8.547296426426712,0.0,0.0,0.0,0.0,1,1,0
306, '1 ',1,31,32,74.56999352527856,15.070529559847712,0.0,0.0,0.0,0.0,1,1,0
307, '1 ',1,31,32,75.08204033526708,15.48040064912522,0.0,0.0,0.0,0.0,1,1,0
308, '1 ',1,31,32,149.6849402160269,24.546316721211888,0.0,0.0,0.0,0.0,1,1,0
309, '1 ',1,31,33,90.0491895993438,27.72313127697911,0.0,0.0,0.0,0.0,1,1,0
310, '1 ',1,31,33,120.2238583040696,32.62974671724625,0.0,0.0,0.0,0.0,1,1,0
311, '1 ',1,31,33,0.0,0.0,0.0,0.0,0.0,0.0,1,1,0
312, '1 ',1,31,33,0.0,0.0,0.0,0.0,0.0,0.0,1,1,0
313, '1 ',1,32,34,178.20991944606232,30.616242851006422,0.0,0.0,0.0,0.0,1,1,0
314, '1 ',1,32,36,164.7211845084404,32.01056355657647,0.0,0.0,0.0,0.0,1,1,0
315, '1 ',1,32,36,277.93240617779475,41.96833595852851,0.0,0.0,0.0,0.0,1,1,0
316, '1 ',1,32,36,59.46053269222844,13.539621869511901,0.0,0.0,0.0,0.0,1,1,0
317, '1 ',1,32,37,0.0,0.0,0.0,0.0,0.0,0.0,1,1,0
318, '1 ',1,32,37,274.95815648290545,47.565688904211115,0.0,0.0,0.0,0.0,1,1,0
319, '1 ',1,32,35,92.59752745861597,18.929421461403603,0.0,0.0,0.0,0.0,1,1,0
320, '1 ',1,32,35,67.82943571597337,19.682164795395547,0.0,0.0,0.0,0.0,1,1,0
321, '1 ',1,32,37,0.0,0.0,0.0,0.0,0.0,0.0,1,1,0
322, '1 ',1,32,37,0.0,0.0,0.0,0.0,0.0,0.0,1,1,0
323, '1 ',1,32,35,0.0,0.0,0.0,0.0,0.0,0.0,1,1,0
324, '1 ',1,32,36,0.0,0.0,0.0,0.0,0.0,0.0,1,1,0
325, '1 ',1,32,35,0.0,0.0,0.0,0.0,0.0,0.0,1,1,0
0 / END OF LOAD DATA, BEGIN FIXED SHUNT DATA
0 / END OF FIXED SHUNT DATA, BEGIN GENERATOR DATA
101,1,10,0,10.914180540945381,3.095758119598031,1.035,0,24,0,1,0,0,1,1,100,14.21478656772524,11.16770144028589,1,1,0,1
101,2,10,0,9.64089178526774,-1.8142657410353422,1.035,0,24,0,1,0,0,1,1,100,25.31854842789471,20.455587723385545,1,1,0,1
101,3,76,14.1,30.454450273420658,-23.23895601020195,1.035,0,89,0,1,0,0,1,1,100,60.50580410268157,46.35958803930576,1,1,0,1
101,4,76,14.1,22.1442452352494,-41.29883321886883,1.035,0,89,0,1,0,0,1,1,100,64.4098809832707,1.6081933711841714,1,1,0,1
102,5,10,0,9.594695666339248,-2.507776230107993,1.035,0,24,0,1,0,0,1,1,100,16.564966809004545,11.260642938222738,1,1,0,1
102,6,10,0,11.35525770438835,-0.3901593228802085,1.035,0,24,0,1,0,0,1,1,100,19.58558896742761,16.059601508574563,1,1,0,1
102,7,76,7,26.610844537150115,-27.785828073043376,1.035,0,89,0,1,0,0,1,1,100,97.99356463309378,34.418488388173294,1,1,0,1
102,8,76,7,28.480144613888115,-31.549264214234427,1.035,0,89,0,1,0,0,1,1,100,79.9392599320039,23.384550792984662,1,1,0,1
107,9,80,17.2,58.09740711282939,1.6143362112343311,1.025,0,118,0,1,0,0,1,1,100,103.68966486770658,26.96545758633873,1,1,0,1
107,10,80,17.2,63.01393772754818,14.945985568687327,1.025,0,118,0,1,0,0,1,1,100,126.30907537415625,65.99749838351273,1,1,0,1
107,11,80,17.2,45.328634748235345,-20.68924753367901,1.025,0,118,0,1,0,0,1,1,100,77.11557008791713,43.30196473790637,1,1,0,1
113,12,95.1,40.7,103.58504914492369,43.91961232200265,1.02,0,232,0,1,0,0,1,1,100,230.37822709516624,79.63863500503359,1,1,0,1
113,13,95.1,40.7,83.11894942075014,-2.0762494392693043,1.02,0,232,0,1,0,0,1,1,100,190.2716224541888,62.92678939473117,1,1,0,1
113,14,95.1,40.7,79.84474502503872,-8.531701650470495,1.02,0,232,0,1,0,0,1,1,100,154.29569464684462,93.41263445103802,1,1,0,1
114,15,0,13.7,220.96481165848672,-56.41734688775614,0.98,0,100,0,1,0,0,1,1,100,0.0,0.0,1,1,0,1
115,16,12,0,6.758628812804819,2.19425266776234,1.014,0,14,0,1,0,0,1,1,100,8.695099445432424,1.7258015626375975,1,1,0,1
115,17,12,0,4.430429100338369,-0.5876207004301257,1.014,0,14,0,1,0,0,1,1,100,14.232022001221777,5.498692175969483,1,1,0,1
115,18,12,0,5.40395448775962,-2.2053313979879032,1.014,0,14,0,1,0,0,1,1,100,14.593337561376394,3.791888717003168,1,1,0,1
115,19,12,0,7.556201096903534,1.3601461739279346,1.014,0,14,0,1,0,0,1,1,100,9.98748667873442,9.525173587502946,1,1,0,1
115,20,12,0,6.47251835083589,0.928290495648981,1.014,0,14,0,1,0,0,1,1,100,13.34849318359047,2.1458622424677003,1,1,0,1
115,21,155,0.05,60.97506887093186,-77.4688810845837,1.014,0,182,0,1,0,0,1,1,100,160.58927428699099,86.82090769706993,1,1,0,1
116,22,155,25.22,83.8571354188025,-62.245633359998465,1.017,0,182,0,1,0,0,1,1,100,125.73872178047895,53.1127264832263,1,1,0,1
118,23,400,137.4,254.29438492283225,-32.488124759402126,1.05,0,471,0,1,0,0,1,1,100,439.68620844185347,198.94694036804137,1,1,0,1
121,24,400,108.2,162.7480222750455,-116.90278253285214,1.05,0,471,0,1,0,0,1,1,100,429.1594535857439,118.04003412369639,1,1,0,1
122,25,50,-4.96,16.799796410650014,-2.867422677949069,1.05,0,53,0,1,0,0,1,1,100,41.52555734850466,37.55167220621572,1,1,0,1
122,26,50,-4.96,20.25674468204379,-8.131281729601323,1.05,0,53,0,1,0,0,1,1,100,40.38618736900389,37.78016979047201,1,1,0,1
122,27,50,-4.96,17.527942196279763,-12.311056977044792,1.05,0,53,0,1,0,0,1,1,100,39.38366716494783,4.825066056431475,1,1,0,1
122,28,50,-4.96,15.072112721949816,-4.058607439603653,1.05,0,53,0,1,0,0,1,1,100,58.98854014463723,13.895233115181327,1,1,0,1
122,29,50,-4.96,15.93446571007371,-14.021670211385935,1.05,0,53,0,1,0,0,1,1,100,53.57029786333442,3.192804737482213,1,1,0,1
122,30,50,-4.96,12.313340643048285,-8.944649904686958,1.05,0,53,0,1,0,0,1,1,100,40.169706447049975,13.376123532386021,1,1,0,1
123,31,155,31.79,89.761469963938,-38.929909876547754,1.05,0,182,0,1,0,0,1,1,100,187.7408071688842,110.09603085748385,1,1,0,1
123,32,155,31.79,81.81397559866309,-34.20497298752889,1.05,0,182,0,1,0,0,1,1,100,146.11187327769585,56.05885092552053,1,1,0,1
123,33,350,71.78,136.44388595363125,6.185033491346985,1.05,0,412,0,1,0,0,1,1,100,271.47225439781323,30.93446904141456,1,1,0,1
201,34,10,0,12.250935991760343,1.353235219605267,1.035,0,24,0,1,0,0,1,1,100,21.932378544472158,18.473675869023428,1,1,0,1
201,35,10,0,7.288839658256619,-2.7120989821851262,1.035,0,24,0,1,0,0,1,1,100,16.93786291219294,12.910795171158389,1,1,0,1
201,36,76,14.1,33.576105502434075,-17.951481220312417,1.035,0,89,0,1,0,0,1,1,100,61.97433001101017,8.959763948619369,1,1,0,1
201,37,76,14.1,31.46299057686701,-27.10647401143797,1.035,0,89,0,1,0,0,1,1,100,83.05600989162922,11.946494985520843,1,1,0,1
202,38,10,0,12.607798385899516,-0.052890117745844734,1.035,0,24,0,1,0,0,1,1,100,21.874311692081392,18.04747479869984,1,1,0,1
202,39,10,0,11.164917616639286,0.5269035380333662,1.035,0,24,0,1,0,0,1,1,100,21.931002071127295,18.481097026159986,1,1,0,1
202,40,76,7,28.25716175325215,-39.295090679312125,1.035,0,89,0,1,0,0,1,1,100,84.89369359668343,9.255200592987237,1,1,0,1
202,41,76,7,32.51596753578633,-23.408920987043537,1.035,0,89,0,1,0,0,1,1,100,87.87132774759084,45.188357079960404,1,1,0,1
207,42,80,17.2,42.3552725482732,-17.259518994949765,1.025,0,118,0,1,0,0,1,1,100,70.989184002392,26.26261317644161,1,1,0,1
207,43,80,17.2,76.68413460999729,-0.8054660176858164,1.025,0,118,0,1,0,0,1,1,100,114.29482718929648,48.06240526842885,1,1,0,1
207,44,80,17.2,72.75626895390451,20.09705918468535,1.025,0,118,0,1,0,0,1,1,100,75.71292705833912,23.470010336259538,1,1,0,1
213,45,95.1,40.7,97.84507904946804,10.864588737487793,1.02,0,232,0,1,0,0,1,1,100,252.64235702711156,147.0542463034717,1,1,0,1
213,46,95.1,40.7,63.2553984299302,-4.003586556762464,1.02,0,232,0,1,0,0,1,1,100,225.00101471561936,126.58691269671077,1,1,0,1
213,47,95.1,40.7,85.83909568935633,-1.7761173583567142,1.02,0,232,0,1,0,0,1,1,100,142.57157659148797,3.572536342050457,1,1,0,1
214,48,0,13.68,245.70136675611138,-4.925453581381561,0.98,0,100,0,1,0,0,1,1,100,0.0,0.0,1,1,0,1
215,49,12,0,4.663201983645558,-2.734539054427297,1.014,0,14,0,1,0,0,1,1,100,9.570424195379019,2.0334959234297285,1,1,0,1
215,50,12,0,7.034738077595829,0.04757146965712167,1.014,0,14,0,1,0,0,1,1,100,8.909245529584586,0.20591184150427466,1,1,0,1
215,51,12,0,5.034310488402843,-0.6311161637306224,1.014,0,14,0,1,0,0,1,1,100,11.38896688465029,3.625231317467989,1,1,0,1
215,52,12,0,7.593659833911807,2.977081461623312,1.014,0,14,0,1,0,0,1,1,100,12.914777746237815,0.7725227378681332,1,1,0,1
215,53,12,0,5.5271583491005,-1.3823682026937618,1.014,0,14,0,1,0,0,1,1,100,14.411248899064958,3.9162100778147586,1,1,0,1
215,54,155,0.048,103.20081312581898,3.7473091781139516,1.014,0,182,0,1,0,0,1,1,100,134.98062384617515,26.576496373605906,1,1,0,1
216,55,155,25.22,98.11002065986395,-20.651591438800097,1.017,0,182,0,1,0,0,1,1,100,146.2055751613807,57.7158480460872,1,1,0,1
218,56,400,137.4,209.3364547006786,-62.375204416457564,1.05,0,471,0,1,0,0,1,1,100,422.83739037811756,84.19808255042881,1,1,0,1
221,57,400,108.2,179.11492412909865,-132.6662794896402,1.05,0,471,0,1,0,0,1,1,100,418.9383232593537,146.30756887607282,1,1,0,1
222,58,50,-4.96,11.789324052631855,-6.892711394652721,1.05,0,53,0,1,0,0,1,1,100,51.219751404132694,49.7820647866957,1,1,0,1
222,59,50,-4.96,18.064755744487048,-12.006910490617155,1.05,0,53,0,1,0,0,1,1,100,36.92271220264956,0.7230722890489931,1,1,0,1
222,60,50,-4.96,18.932043811678888,-11.623728208057582,1.05,0,53,0,1,0,0,1,1,100,44.25394003279507,7.112156879156828,1,1,0,1
222,61,50,-4.96,16.975066909939052,-4.918364649266003,1.05,0,53,0,1,0,0,1,1,100,50.54844754515215,10.517618476878845,1,1,0,1
222,62,50,-4.96,18.865434711426495,-9.424266534205529,1.05,0,53,0,1,0,0,1,1,100,59.546288109850146,38.956345733010586,1,1,0,1
222,63,50,-4.96,12.311955854296684,-15.080425937660038,1.05,0,53,0,1,0,0,1,1,100,37.889199177734554,20.326031660640076,1,1,0,1
223,64,155,31.79,65.9926521293819,-27.378504978492856,1.05,0,182,0,1,0,0,1,1,100,142.7146922654938,42.220994180545674,1,1,0,1
223,65,155,31.79,82.07897079735994,-73.7254476561211,1.05,0,182,0,1,0,0,1,1,100,143.81946623441763,62.508352152060255,1,1,0,1
223,66,350,71.78,186.8742219521664,42.004746401216835,1.05,0,412,0,1,0,0,1,1,100,324.2745789093897,115.68160953279585,1,1,0,1
301,67,10,0,10.312807301059365,-2.1640793248079717,1.035,0,24,0,1,0,0,1,1,100,15.33445910550654,10.165479924818502,1,1,0,1
301,68,10,0,7.050001697149128,-3.420557841192931,1.035,0,24,0,1,0,0,1,1,100,19.750396138057113,16.489837101874873,1,1,0,1
301,69,76,14.1,36.88744805753231,-9.56230073515325,1.035,0,89,0,1,0,0,1,1,100,95.91923802699895,49.36303721215578,1,1,0,1
301,70,76,14.1,23.46074663568288,-15.90039314655587,1.035,0,89,0,1,0,0,1,1,100,56.24822639748454,21.502583696446962,1,1,0,1
302,71,10,0,11.281646808143705,4.280263984110206,1.035,0,24,0,1,0,0,1,1,100,18.697231747210026,13.87667066008784,1,1,0,1
302,72,10,0,9.110773752443492,-0.8386553297750652,1.035,0,24,0,1,0,0,1,1,100,21.10271749831736,18.02943346223794,1,1,0,1
302,73,76,7,30.811083141714338,-22.843254870502275,1.035,0,89,0,1,0,0,1,1,100,60.849122141487896,2.800750630535191,1,1,0,1
302,74,76,7,27.21909204684198,-24.7508950533811,1.035,0,89,0,1,0,0,1,1,100,68.33680872339755,18.4251338756457,1,1,0,1
307,75,80,17.2,62.1511312192306,9.791703376919038,1.025,0,118,0,1,0,0,1,1,100,128.29526284243912,74.25382679444738,1,1,0,1
307,76,80,17.2,73.25144689064473,1.5095563530921936,1.025,0,118,0,1,0,0,1,1,100,87.46564322616905,16.73057852894999,1,1,0,1
307,77,80,17.2,64.2391001963988,7.345457341521978,1.025,0,118,0,1,0,0,1,1,100,117.82282640691845,36.59470827202311,1,1,0,1
313,78,95.1,40.7,57.52973113581538,-41.27107917889953,1.02,0,232,0,1,0,0,1,1,100,254.30962841524746,146.22572701173138,1,1,0,1
313,79,95.1,40.7,77.9323017783463,4.872993875294924,1.02,0,232,0,1,0,0,1,1,100,245.03865024298432,130.17762076626067,1,1,0,1
313,80,95.1,40.7,86.32421803846955,0.9630039185285568,1.02,0,232,0,1,0,0,1,1,100,243.9143967067823,131.34930443911583,1,1,0,1
314,81,0,13.68,162.55972307175398,-72.09661490283906,0.98,0,100,0,1,0,0,1,1,100,0.0,0.0,1,1,0,1
315,82,12,0,7.534122327435761,3.032392193097621,1.014,0,14,0,1,0,0,1,1,100,8.831325123086572,1.141217735633255,1,1,0,1
315,83,12,0,6.54601495563984,0.6225819312036043,1.014,0,14,0,1,0,0,1,1,100,13.616610446199774,4.306750843897461,1,1,0,1
315,84,12,0,6.896376157924532,2.035237236600369,1.014,0,14,0,1,0,0,1,1,100,15.551826131343843,6.5175658468902125,1,1,0,1
315,85,12,0,7.286997813731432,2.3143298495560884,1.014,0,14,0,1,0,0,1,1,100,12.433039993420245,3.703064561560753,1,1,0,1
315,86,12,0,6.686210044473409,1.8928097317926582,1.014,0,14,0,1,0,0,1,1,100,11.084970890544355,10.625229872379014,1,1,0,1
315,87,155,0.048,103.40208062529564,1.204402060247972,1.014,0,182,0,1,0,0,1,1,100,183.01358567760326,59.16178638442652,1,1,0,1
316,88,155,25.22,92.92473639547825,-26.89216976519674,1.017,0,182,0,1,0,0,1,1,100,184.2126404081937,109.12386587075889,1,1,0,1
318,89,400,137.4,252.44426269084218,-17.68233177252111,1.05,0,471,0,1,0,0,1,1,100,471.90267683938146,148.74590300954878,1,1,0,1
321,90,400,108.2,237.43425852619114,-18.8279956183396,1.05,0,471,0,1,0,0,1,1,100,501.57911185175175,193.11999777331943,1,1,0,1
322,91,50,-4.96,11.429140508174896,-6.933547660615293,1.05,0,53,0,1,0,0,1,1,100,48.72343586757779,17.838474204584738,1,1,0,1
322,92,50,-4.96,19.97149958088994,-2.925193556677552,1.05,0,53,0,1,0,0,1,1,100,61.22104030800983,5.222872383892543,1,1,0,1
322,93,50,-4.96,13.598427771776915,-16.651989466045052,1.05,0,53,0,1,0,0,1,1,100,39.22193550737575,23.477790188828827,1,1,0,1
322,94,50,-4.96,19.049037846177818,-6.912952146586029,1.05,0,53,0,1,0,0,1,1,100,52.480024308897555,4.610598141856882,1,1,0,1
322,95,50,-4.96,13.09243928939104,-9.586847618035973,1.05,0,53,0,1,0,0,1,1,100,44.11567727802321,1.1693489598110318,1,1,0,1
322,96,50,-4.96,12.336968030035495,-9.37465027216822,1.05,0,53,0,1,0,0,1,1,100,38.84115610271692,6.566344573994291,1,1,0,1
323,97,155,31.79,56.75899614021182,-52.39501909120008,1.05,0,182,0,1,0,0,1,1,100,180.69486034335569,57.63599646554793,1,1,0,1
323,98,155,31.79,94.15869400650263,-56.89958162792027,1.05,0,182,0,1,0,0,1,1,100,134.71501650870778,38.416989292099615,1,1,0,1
323,99,350,71.78,175.43461770750582,-13.201510978396982,1.05,0,412,0,1,0,0,1,1,100,271.4228062820621,50.287029741331935,1,1,0,1
0 / END OF GENERATOR DATA, BEGIN BRANCH DATA
101,102,1,0.003,0.014,0.461,210.0,231.6,240.0,0,0,0,0,1,1,0,1,1
101,103,1,0.055,0.211,0.057,210.0,249.6,264.0,0,0,0,0,1,1,0,1,1
101,105,1,0.022,0.085,0.023,210.0,249.6,264.0,0,0,0,0,1,1,0,1,1
102,104,1,0.033,0.127,0.034,210.0,249.6,264.0,0,0,0,0,1,1,0,1,1
102,106,1,0.05,0.192,0.052,210.0,249.6,264.0,0,0,0,0,1,1,0,1,1
103,109,1,0.031,0.119,0.032,210.0,249.6,264.0,0,0,0,0,1,1,0,1,1
104,109,1,0.027,0.104,0.028,210.0,249.6,264.0,0,0,0,0,1,1,0,1,1
105,110,1,0.023,0.088,0.024,210.0,249.6,264.0,0,0,0,0,1,1,0,1,1
106,110,1,0.014,0.061,2.459,210.0,231.6,240.0,0,0,0,0,1,1,0,1,1
107,108,1,0.016,0.061,0.017,210.0,249.6,264.0,0,0,0,0,1,1,0,1,1
107,203,1,0.042,0.161,0.044,210.0,249.6,264.0,0,0,0,0,1,1,0,1,1
108,109,1,0.043,0.165,0.045,210.0,249.6,264.0,0,0,0,0,1,1,0,1,1
108,110,1,0.043,0.165,0.045,210.0,249.6,264.0,0,0,0,0,1,1,0,1,1
111,113,1,0.006,0.048,0.1,600.0,720.0,750.0,0,0,0,0,1,1,0,1,1
111,114,1,0.005,0.042,0.088,600.0,720.0,750.0,0,0,0,0,1,1,0,1,1
112,113,1,0.006,0.048,0.1,600.0,720.0,750.0,0,0,0,0,1,1,0,1,1
112,123,1,0.012,0.097,0.203,600.0,720.0,750.0,0,0,0,0,1,1,0,1,1
113,123,1,0.011,0.087,0.182,600.0,720.0,750.0,0,0,0,0,1,1,0,1,1
113,215,1,0.01,0.075,0.158,600.0,720.0,750.0,0,0,0,0,1,1,0,1,1
114,116,1,0.005,0.059,0.082,600.0,720.0,750.0,0,0,0,0,1,1,0,1,1
115,116,1,0.002,0.017,0.036,600.0,720.0,750.0,0,0,0,0,1,1,0,1,1
115,121,1,0.006,0.049,0.103,600.0,720.0,750.0,0,0,0,0,1,1,0,1,1
115,121,2,0.006,0.049,0.103,600.0,720.0,750.0,0,0,0,0,1,1,0,1,1
115,124,1,0.007,0.052,0.109,600.0,720.0,750.0,0,0,0,0,1,1,0,1,1
116,117,1,0.003,0.026,0.055,600.0,720.0,750.0,0,0,0,0,1,1,0,1,1
116,119,1,0.003,0.023,0.049,600.0,720.0,750.0,0,0,0,0,1,1,0,1,1
117,118,1,0.002,0.014,0.03,600.0,720.0,750.0,0,0,0,0,1,1,0,1,1
117,122,1,0.014,0.105,0.221,600.0,720.0,750.0,0,0,0,0,1,1,0,1,1
118,121,1,0.003,0.026,0.055,600.0,720.0,750.0,0,0,0,0,1,1,0,1,1
118,121,2,0.003,0.026,0.055,600.0,720.0,750.0,0,0,0,0,1,1,0,1,1
119,120,1,0.005,0.04,0.083,600.0,720.0,750.0,0,0,0,0,1,1,0,1,1
119,120,2,0.005,0.04,0.083,600.0,720.0,750.0,0,0,0,0,1,1,0,1,1
120,123,1,0.003,0.022,0.046,600.0,720.0,750.0,0,0,0,0,1,1,0,1,1
120,123,2,0.003,0.022,0.046,600.0,720.0,750.0,0,0,0,0,1,1,0,1,1
121,122,1,0.009,0.068,0.142,600.0,720.0,750.0,0,0,0,0,1,1,0,1,1
123,217,1,0.01,0.074,0.155,600.0,720.0,750.0,0,0,0,0,1,1,0,1,1
201,202,1,0.003,0.014,0.461,210.0,231.6,240.0,0,0,0,0,1,1,0,1,1
201,203,1,0.055,0.211,0.057,210.0,249.6,264.0,0,0,0,0,1,1,0,1,1
201,205,1,0.022,0.085,0.023,210.0,249.6,264.0,0,0,0,0,1,1,0,1,1
202,204,1,0.033,0.127,0.034,210.0,249.6,264.0,0,0,0,0,1,1,0,1,1
202,206,1,0.05,0.192,0.052,210.0,249.6,264.0,0,0,0,0,1,1,0,1,1
203,209,1,0.031,0.119,0.032,210.0,249.6,264.0,0,0,0,0,1,1,0,1,1
204,209,1,0.027,0.104,0.028,210.0,249.6,264.0,0,0,0,0,1,1,0,1,1
205,210,1,0.023,0.088,0.024,210.0,249.6,264.0,0,0,0,0,1,1,0,1,1
206,210,1,0.014,0.061,2.459,210.0,231.6,240.0,0,0,0,0,1,1,0,1,1
207,208,1,0.016,0.061,0.017,210.0,249.6,264.0,0,0,0,0,1,1,0,1,1
208,209,1,0.043,0.165,0.045,210.0,249.6,264.0,0,0,0,0,1,1,0,1,1
208,210,1,0.043,0.165,0.045,210.0,249.6,264.0,0,0,0,0,1,1,0,1,1
211,213,1,0.006,0.048,0.1,600.0,720.0,750.0,0,0,0,0,1,1,0,1,1
211,214,1,0.005,0.042,0.088,600.0,720.0,750.0,0,0,0,0,1,1,0,1,1
212,213,1,0.006,0.048,0.1,600.0,720.0,750.0,0,0,0,0,1,1,0,1,1
212,223,1,0.012,0.097,0.203,600.0,720.0,750.0,0,0,0,0,1,1,0,1,1
213,223,1,0.011,0.087,0.182,600.0,720.0,750.0,0,0,0,0,1,1,0,1,1
214,216,1,0.005,0.059,0.082,600.0,720.0,750.0,0,0,0,0,1,1,0,1,1
215,216,1,0.002,0.017,0.036,600.0,720.0,750.0,0,0,0,0,1,1,0,1,1
215,221,1,0.006,0.049,0.103,600.0,720.0,750.0,0,0,0,0,1,1,0,1,1
215,221,2,0.006,0.049,0.103,600.0,720.0,750.0,0,0,0,0,1,1,0,1,1
215,224,1,0.007,0.052,0.109,600.0,720.0,750.0,0,0,0,0,1,1,0,1,1
216,217,1,0.003,0.026,0.055,600.0,720.0,750.0,0,0,0,0,1,1,0,1,1
216,219,1,0.003,0.023,0.049,600.0,720.0,750.0,0,0,0,0,1,1,0,1,1
217,218,1,0.002,0.014,0.03,600.0,720.0,750.0,0,0,0,0,1,1,0,1,1
217,222,1,0.014,0.105,0.221,600.0,720.0,750.0,0,0,0,0,1,1,0,1,1
218,221,1,0.003,0.026,0.055,600.0,720.0,750.0,0,0,0,0,1,1,0,1,1
218,221,2,0.003,0.026,0.055,600.0,720.0,750.0,0,0,0,0,1,1,0,1,1
219,220,1,0.005,0.04,0.083,600.0,720.0,750.0,0,0,0,0,1,1,0,1,1
219,220,2,0.005,0.04,0.083,600.0,720.0,750.0,0,0,0,0,1,1,0,1,1
220,223,1,0.003,0.022,0.046,600.0,720.0,750.0,0,0,0,0,1,1,0,1,1
220,223,2,0.003,0.022,0.046,600.0,720.0,750.0,0,0,0,0,1,1,0,1,1
221,222,1,0.009,0.068,0.142,600.0,720.0,750.0,0,0,0,0,1,1,0,1,1
301,302,1,0.003,0.014,0.461,210.0,231.6,240.0,0,0,0,0,1,1,0,1,1
301,303,1,0.055,0.211,0.057,210.0,249.6,264.0,0,0,0,0,1,1,0,1,1
301,305,1,0.022,0.085,0.023,210.0,249.6,264.0,0,0,0,0,1,1,0,1,1
302,304,1,0.033,0.127,0.034,210.0,249.6,264.0,0,0,0,0,1,1,0,1,1
302,306,1,0.05,0.192,0.052,210.0,249.6,264.0,0,0,0,0,1,1,0,1,1
303,309,1,0.031,0.119,0.032,210.0,249.6,264.0,0,0,0,0,1,1,0,1,1
304,309,1,0.027,0.104,0.028,210.0,249.6,264.0,0,0,0,0,1,1,0,1,1
305,310,1,0.023,0.088,0.024,210.0,249.6,264.0,0,0,0,0,1,1,0,1,1
306,310,1,0.014,0.061,2.459,210.0,231.6,240.0,0,0,0,0,1,1,0,1,1
307,308,1,0.016,0.061,0.017,210.0,249.6,264.0,0,0,0,0,1,1,0,1,1
308,309,1,0.043,0.165,0.045,210.0,249.6,264.0,0,0,0,0,1,1,0,1,1
308,310,1,0.043,0.165,0.045,210.0,249.6,264.0,0,0,0,0,1,1,0,1,1
311,313,1,0.006,0.048,0.1,600.0,720.0,750.0,0,0,0,0,1,1,0,1,1
311,314,1,0.005,0.042,0.088,600.0,720.0,750.0,0,0,0,0,1,1,0,1,1
312,313,1,0.006,0.048,0.1,600.0,720.0,750.0,0,0,0,0,1,1,0,1,1
312,323,1,0.012,0.097,0.203,600.0,720.0,750.0,0,0,0,0,1,1,0,1,1
313,323,1,0.011,0.087,0.182,600.0,720.0,750.0,0,0,0,0,1,1,0,1,1
314,316,1,0.005,0.059,0.082,600.0,720.0,750.0,0,0,0,0,1,1,0,1,1
315,316,1,0.002,0.017,0.036,600.0,720.0,750.0,0,0,0,0,1,1,0,1,1
315,321,1,0.006,0.049,0.103,600.0,720.0,750.0,0,0,0,0,1,1,0,1,1
315,321,2,0.006,0.049,0.103,600.0,720.0,750.0,0,0,0,0,1,1,0,1,1
315,324,1,0.007,0.052,0.109,600.0,720.0,750.0,0,0,0,0,1,1,0,1,1
316,317,1,0.003,0.026,0.055,600.0,720.0,750.0,0,0,0,0,1,1,0,1,1
316,319,1,0.003,0.023,0.049,600.0,720.0,750.0,0,0,0,0,1,1,0,1,1
317,318,1,0.002,0.014,0.03,600.0,720.0,750.0,0,0,0,0,1,1,0,1,1
317,322,1,0.014,0.105,0.221,600.0,720.0,750.0,0,0,0,0,1,1,0,1,1
318,223,1,0.013,0.104,0.218,600.0,720.0,750.0,0,0,0,0,1,1,0,1,1
318,321,1,0.003,0.026,0.055,600.0,720.0,750.0,0,0,0,0,1,1,0,1,1
318,321,2,0.003,0.026,0.055,600.0,720.0,750.0,0,0,0,0,1,1,0,1,1
319,320,1,0.005,0.04,0.083,600.0,720.0,750.0,0,0,0,0,1,1,0,1,1
319,320,2,0.005,0.04,0.083,600.0,720.0,750.0,0,0,0,0,1,1,0,1,1
320,323,1,0.003,0.022,0.046,600.0,720.0,750.0,0,0,0,0,1,1,0,1,1
320,323,2,0.003,0.022,0.046,600.0,720.0,750.0,0,0,0,0,1,1,0,1,1
321,322,1,0.009,0.068,0.142,600.0,720.0,750.0,0,0,0,0,1,1,0,1,1
323,325,1,0,0.009,0,866.4,1071.6,1071.6,0,0,0,0,1,1,0,1,1
325,121,1,0.012,0.097,0.203,600.0,720.0,750.0,0,0,0,0,1,1,0,1,1
0 / END OF BRANCH DATA, BEGIN TRANSFORMER DATA
  103 ,  124 , 0,  1 , 1, 1, 1, 0, 0, 2, '            ',  1 , 1, 1
   0.002000 ,  0.084000 ,  100.000000
   1.015000 , 0,  0.000000 ,  400.000000 ,  510.000000 ,  600.000000 , 0, 0,  1.10 ,  0.90 ,  1.10 ,  0.90 , 33, 0, 0, 0
   1.000000, 0
  109 ,  111 , 0,  1 , 1, 1, 1, 0, 0, 2, '            ',  1 , 1, 1
   0.002000 ,  0.084000 ,  100.000000
   1.030000 , 0,  0.000000 ,  400.000000 ,  510.000000 ,  600.000000 , 0, 0,  1.10 ,  0.90 ,  1.10 ,  0.90 , 33, 0, 0, 0
   1.000000, 0
  109 ,  112 , 0,  1 , 1, 1, 1, 0, 0, 2, '            ',  1 , 1, 1
   0.002000 ,  0.084000 ,  100.000000
   1.030000 , 0,  0.000000 ,  400.000000 ,  510.000000 ,  600.000000 , 0, 0,  1.10 ,  0.90 ,  1.10 ,  0.90 , 33, 0, 0, 0
   1.000000, 0
  110 ,  111 , 0,  1 , 1, 1, 1, 0, 0, 2, '            ',  1 , 1, 1
   0.002000 ,  0.084000 ,  100.000000
   1.015000 , 0,  0.000000 ,  400.000000 ,  510.000000 ,  600.000000 , 0, 0,  1.10 ,  0.90 ,  1.10 ,  0.90 , 33, 0, 0, 0
   1.000000, 0
  110 ,  112 , 0,  1 , 1, 1, 1, 0, 0, 2, '            ',  1 , 1, 1
   0.002000 ,  0.084000 ,  100.000000
   1.015000 , 0,  0.000000 ,  400.000000 ,  510.000000 ,  600.000000 , 0, 0,  1.10 ,  0.90 ,  1.10 ,  0.90 , 33, 0, 0, 0
   1.000000, 0
  203 ,  224 , 0,  1 , 1, 1, 1, 0, 0, 2, '            ',  1 , 1, 1
   0.002000 ,  0.084000 ,  100.000000
   1.015000 , 0,  0.000000 ,  400.000000 ,  510.000000 ,  600.000000 , 0, 0,  1.10 ,  0.90 ,  1.10 ,  0.90 , 33, 0, 0, 0
   1.000000, 0
  209 ,  211 , 0,  1 , 1, 1, 1, 0, 0, 2, '            ',  1 , 1, 1
   0.002000 ,  0.084000 ,  100.000000
   1.030000 , 0,  0.000000 ,  400.000000 ,  510.000000 ,  600.000000 , 0, 0,  1.10 ,  0.90 ,  1.10 ,  0.90 , 33, 0, 0, 0
   1.000000, 0
  209 ,  212 , 0,  1 , 1, 1, 1, 0, 0, 2, '            ',  1 , 1, 1
   0.002000 ,  0.084000 ,  100.000000
   1.030000 , 0,  0.000000 ,  400.000000 ,  510.000000 ,  600.000000 , 0, 0,  1.10 ,  0.90 ,  1.10 ,  0.90 , 33, 0, 0, 0
   1.000000, 0
  210 ,  211 , 0,  1 , 1, 1, 1, 0, 0, 2, '            ',  1 , 1, 1
   0.002000 ,  0.084000 ,  100.000000
   1.015000 , 0,  0.000000 ,  400.000000 ,  510.000000 ,  600.000000 , 0, 0,  1.10 ,  0.90 ,  1.10 ,  0.90 , 33, 0, 0, 0
   1.000000, 0
  210 ,  212 , 0,  1 , 1, 1, 1, 0, 0, 2, '            ',  1 , 1, 1
   0.002000 ,  0.084000 ,  100.000000
   1.015000 , 0,  0.000000 ,  400.000000 ,  510.000000 ,  600.000000 , 0, 0,  1.10 ,  0.90 ,  1.10 ,  0.90 , 33, 0, 0, 0
   1.000000, 0
  303 ,  324 , 0,  1 , 1, 1, 1, 0, 0, 2, '            ',  1 , 1, 1
   0.002000 ,  0.084000 ,  100.000000
   1.015000 , 0,  0.000000 ,  400.000000 ,  510.000000 ,  600.000000 , 0, 0,  1.10 ,  0.90 ,  1.10 ,  0.90 , 33, 0, 0, 0
   1.000000, 0
  309 ,  311 , 0,  1 , 1, 1, 1, 0, 0, 2, '            ',  1 , 1, 1
   0.002000 ,  0.084000 ,  100.000000
   1.030000 , 0,  0.000000 ,  400.000000 ,  510.000000 ,  600.000000 , 0, 0,  1.10 ,  0.90 ,  1.10 ,  0.90 , 33, 0, 0, 0
   1.000000, 0
  309 ,  312 , 0,  1 , 1, 1, 1, 0, 0, 2, '            ',  1 , 1, 1
   0.002000 ,  0.084000 ,  100.000000
   1.030000 , 0,  0.000000 ,  400.000000 ,  510.000000 ,  600.000000 , 0, 0,  1.10 ,  0.90 ,  1.10 ,  0.90 , 33, 0, 0, 0
   1.000000, 0
  310 ,  311 , 0,  1 , 1, 1, 1, 0, 0, 2, '            ',  1 , 1, 1
   0.002000 ,  0.084000 ,  100.000000
   1.015000 , 0,  0.000000 ,  400.000000 ,  510.000000 ,  600.000000 , 0, 0,  1.10 ,  0.90 ,  1.10 ,  0.90 , 33, 0, 0, 0
   1.000000, 0
  310 ,  312 , 0,  1 , 1, 1, 1, 0, 0, 2, '            ',  1 , 1, 1
   0.002000 ,  0.084000 ,  100.000000
   1.015000 , 0,  0.000000 ,  400.000000 ,  510.000000 ,  600.000000 , 0, 0,  1.10 ,  0.90 ,  1.10 ,  0.90 , 33, 0, 0, 0
   1.000000, 0
0 / END OF TRANSFORMER DATA, BEGIN AREA DATA
0 / END OF AREA DATA, BEGIN TWO-TERMINAL DC DATA
0 / END OF TWO-TERMINAL DC DATA, BEGIN VSC DC LINE DATA
0 / END OF VSC DC LINE DATA, BEGIN SWITCHED SHUNT DATA
0 / END OF SWITCHED SHUNT DATA, BEGIN IMPEDANCE CORRECTION DATA
0 / END OF IMPEDANCE CORRECTION DATA, BEGIN MULTI-TERMINAL DC DATA
0 / END OF MULTI-TERMINAL DC DATA, BEGIN MULTI-SECTION LINE DATA
0 / END OF MULTI-SECTION LINE DATA, BEGIN ZONE DATA
0 / END OF ZONE DATA, BEGIN INTER-AREA TRANSFER DATA
0 / END OF INTER-AREA TRANSFER DATA, BEGIN OWNER DATA
0 / END OF OWNER DATA, BEGIN FACTS CONTROL DEVICE DATA
0 / END OF FACTS CONTROL DEVICE DATA
0 / END OF SWITCHED SHUNT DATA, BEGIN GNE DATA
0 / END OF GNE DATA, BEGIN INDUCTION MACHINE DATA
0 / END OF INDUCTION MACHINE DATA
Q 
